1 USN  IVE  ABLE 150  T FO  30  INUT ES
    A = .00007912     B = 274.5     R = 1.385
    MAX STEP TIME = 1.00 MIN
    ASC =  60.0 FT/MIN      DESC =  60.0 FT/MIN
TOTAL DIVE     ACTUAL      ALTITUDE      SAFE ASCENT DEPTHS (FT OF SEAWATER)
TIME (MIN)     DEPTH (FT)  (1000 FT)      1        2        3        4

      0.00       0.00              1   -19.07   -19.07   -19.07   -19.07
      2.00     120.00              1   -16.14   -19.02   -19.07   -19.07
      4.00     150.00              1    -8.67   -18.67   -19.06   -19.07
      6.00     150.00              1    -1.81   -17.96   -19.03   -19.07
