1 STAN ARD  IVE  00 F  FOR 10 M NUTE  (FL ING  PTIO N)                 
    A = .00007912     B = 274.5     R = 1.385
    MAX STEP TIME = 1.00 MIN
    ASC =  60.0 FT/MIN      DESC =  60.0 FT/MIN
TOTAL DIVE     ACTUAL      ALTITUDE      SAFE ASCENT DEPTHS (FT OF SEAWATER)
TIME (MIN)     DEPTH (FT)  (1000 FT)      1        2        3        4

      0.00       0.00              1   -19.07   -19.07   -19.07   -19.07
+                         22.03
      2.00     120.00              1   -16.14   -19.02   -19.07   -19.07
+                         17.45
      4.00     200.00              1    -6.53   -18.64   -19.06   -19.07
+                          5.98
      6.00     200.00              1     3.80   -17.70   -19.02   -19.07
      8.00     200.00              1    12.96   -16.26   -18.92   -19.07
     10.00     200.00              1    21.04   -14.42   -18.74   -19.05
     12.00      80.00              1    23.65   -12.36   -18.47   -19.03
     12.90      22.44              1    22.44   -11.50   -18.33   -19.02
     14.00      20.38              1    20.38   -10.57   -18.13   -18.99
     16.00      16.96              1    16.96    -9.20   -17.73   -18.94
     18.00      13.92              1    13.92    -8.17   -17.31   -18.86
     20.00      11.21              1    11.21    -7.41   -16.87   -18.77
     22.00       8.77              1     8.77    -6.88   -16.44   -18.66
     24.00       6.58              1     6.58    -6.53   -16.02   -18.53
     26.00       4.58              1     4.58    -6.32   -15.63   -18.38
     28.00       2.77              1     2.77    -6.24   -15.26   -18.23
     30.00       1.11              1     1.11    -6.25   -14.92   -18.06
     32.00      -0.41              1    -0.41    -6.33   -14.60   -17.88
+                          0.35
     32.00      -0.41              1    -0.41    -6.33   -14.60   -17.88
+                          0.35
     45.00       0.00              1    -7.08    -7.79   -13.27   -16.65
+                          6.54
     60.00       0.00              2   -11.01    -9.77   -12.75   -15.37
+                          9.41
     75.00       0.00              2   -13.19   -11.37   -12.75   -14.46
+                         11.24
     90.00       0.00              2   -14.51   -12.54   -12.95   -13.91
+                         12.66
    105.00       0.00              3   -15.37   -13.40   -13.20   -13.62
+                         13.48
    120.00       0.00              3   -15.95   -14.04   -13.47   -13.53
+                         13.82
    135.00       0.00              4   -16.36   -14.53   -13.73   -13.55
+                         13.93
    150.00       0.00              4   -16.66   -14.91   -13.99   -13.66
+                         14.07
    165.00       0.00              4   -16.89   -15.22   -14.23   -13.82
+                         14.28
    180.00       0.00              4   -17.07   -15.47   -14.46   -14.00
+                         14.52
    195.00       0.00              4   -17.21   -15.69   -14.69   -14.20
+                         14.78
    210.00       0.00              4   -17.33   -15.89   -14.90   -14.41
+                         15.05
    225.00       0.00              4   -17.44   -16.06   -15.10   -14.61
+                         15.33
    240.00       0.00              4   -17.53   -16.22   -15.29   -14.81
+                         15.60
    255.00       0.00              4   -17.62   -16.37   -15.47   -15.01
+                         15.87
    270.00       0.00              4   -17.69   -16.51   -15.65   -15.20
+                         16.13
    285.00       0.00              4   -17.76   -16.63   -15.81   -15.38
+                         16.38
    300.00       0.00              4   -17.83   -16.75   -15.97   -15.56
+                         16.63
    315.00       0.00              4   -17.89   -16.87   -16.12   -15.72
+                         16.86
    330.00       0.00              4   -17.95   -16.98   -16.26   -15.88
+                         17.09
    345.00       0.00              4   -18.01   -17.08   -16.40   -16.04
+                         17.31
    360.00       0.00              4   -18.06   -17.17   -16.52   -16.18
+                         17.52
    375.00       0.00              4   -18.11   -17.27   -16.65   -16.32
+                         17.72
    390.00       0.00              4   -18.15   -17.35   -16.76   -16.45
+                         17.91
    405.00       0.00              4   -18.20   -17.44   -16.87   -16.58
+                         18.10
    420.00       0.00              4   -18.24   -17.51   -16.98   -16.70
+                         18.27
    435.00       0.00              4   -18.28   -17.59   -17.08   -16.81
+                         18.44
    450.00       0.00              4   -18.32   -17.66   -17.18   -16.92
+                         18.61
    465.00       0.00              4   -18.36   -17.73   -17.27   -17.02
+                         18.76
    480.00       0.00              4   -18.39   -17.79   -17.35   -17.12
+                         18.91
    495.00       0.00              4   -18.42   -17.85   -17.44   -17.21
+                         19.05
    510.00       0.00              4   -18.45   -17.91   -17.51   -17.30
+                         19.19
    525.00       0.00              4   -18.48   -17.97   -17.59   -17.39
+                         19.32
    540.00       0.00              4   -18.51   -18.02   -17.66   -17.47
+                         19.44
    555.00       0.00              4   -18.54   -18.07   -17.73   -17.54
+                         19.56
    570.00       0.00              4   -18.56   -18.12   -17.79   -17.62
+                         19.67
    585.00       0.00              4   -18.59   -18.17   -17.85   -17.69
+                         19.78
    600.00       0.00              4   -18.61   -18.21   -17.91   -17.75
+                         19.89
    615.00       0.00              4   -18.63   -18.25   -17.97   -17.82
+                         19.99
    630.00       0.00              4   -18.66   -18.29   -18.02   -17.88
+                         20.08
    645.00       0.00              4   -18.68   -18.33   -18.07   -17.93
+                         20.17
    660.00       0.00              4   -18.69   -18.36   -18.12   -17.99
+                         20.26
    675.00       0.00              4   -18.71   -18.40   -18.16   -18.04
+                         20.34
    690.00       0.00              4   -18.73   -18.43   -18.21   -18.09
+                         20.42
    705.00       0.00              4   -18.75   -18.46   -18.25   -18.14
+                         20.49
    720.00       0.00              4   -18.76   -18.49   -18.29   -18.18
+                         20.56
    735.00       0.00              4   -18.78   -18.52   -18.32   -18.22
+                         20.63
    750.00       0.00              4   -18.79   -18.54   -18.36   -18.26
+                         20.70
    765.00       0.00              4   -18.80   -18.57   -18.39   -18.30
+                         20.76
    780.00       0.00              4   -18.82   -18.59   -18.43   -18.34
+                         20.82
    795.00       0.00              4   -18.83   -18.62   -18.46   -18.37
+                         20.88
    810.00       0.00              4   -18.84   -18.64   -18.49   -18.41
+                         20.93
    825.00       0.00              4   -18.85   -18.66   -18.52   -18.44
+                         20.98
    840.00       0.00              4   -18.86   -18.68   -18.54   -18.47
+                         21.03
    855.00       0.00              4   -18.87   -18.70   -18.57   -18.50
+                         21.08
    870.00       0.00              4   -18.88   -18.72   -18.59   -18.53
+                         21.12
    885.00       0.00              4   -18.89   -18.73   -18.61   -18.55
+                         21.17
    900.00       0.00              4   -18.90   -18.75   -18.64   -18.58
+                         21.21
    915.00       0.00              4   -18.91   -18.76   -18.66   -18.60
+                         21.25
    930.00       0.00              4   -18.92   -18.78   -18.68   -18.62
+                         21.28
    945.00       0.00              4   -18.92   -18.79   -18.70   -18.64
+                         21.32
    960.00       0.00              4   -18.93   -18.81   -18.71   -18.66
+                         21.35
    975.00       0.00              4   -18.94   -18.82   -18.73   -18.68
+                         21.38
    990.00       0.00              4   -18.94   -18.83   -18.75   -18.70
+                         21.41
   1005.00       0.00              4   -18.95   -18.84   -18.76   -18.72
+                         21.44
   1020.00       0.00              4   -18.96   -18.85   -18.78   -18.74
+                         21.47
   1035.00       0.00              4   -18.96   -18.86   -18.79   -18.75
+                         21.50
   1050.00       0.00              4   -18.97   -18.87   -18.80   -18.77
+                         21.52
   1065.00       0.00              4   -18.97   -18.88   -18.82   -18.78
+                         21.55
   1080.00       0.00              4   -18.98   -18.89   -18.83   -18.80
+                         21.57
   1095.00       0.00              4   -18.98   -18.90   -18.84   -18.81
+                         21.59
   1110.00       0.00              4   -18.99   -18.91   -18.85   -18.82
+                         21.61
   1112.00       0.00              4   -18.99   -18.91   -18.85   -18.82
+                         21.62
